REMARK  Name = ligand
REMARK  1 active torsions:
REMARK  status: ('A' for Active; 'I' for Inactive)
ROOT
ATOM      1  C   LIG A   1       0.000   0.000   0.000  1.00  0.00     0.034 C
ATOM      2  C   LIG A   1       1.400   0.000   0.000  1.00  0.00     0.002 C
ATOM      3  C   LIG A   1       2.100   1.200   0.000  1.00  0.00     0.034 C
ENDROOT
TORSDOF 1