REMARK  Name = receptor
REMARK  2 active torsions:
REMARK  status: ('A' for Active; 'I' for Inactive)
ROOT
ATOM      1  C   LIG A   1      -2.803  -0.020   0.497  1.00  0.00     0.034 C 
ATOM      2  C   LIG A   1      -1.509   0.768   0.497  1.00  0.00     0.002 C 
ATOM      3  C   LIG A   1      -0.301  -0.146   0.497  1.00  0.00     0.002 C 
ATOM      4  C   LIG A   1       1.018   0.607   0.497  1.00  0.00     0.034 C 
ATOM      5  C   LIG A   1      -1.509   1.591  -0.738  1.00  0.00     0.034 C 
ENDROOT
TORSDOF 2