MODEL 1
REMARK VINA RESULT:      -1.2      0.000      0.000
REMARK Flexibility Score: inf
REMARK Active torsions [ 7 ] -> [ 7 ]
ROOT
ATOM      1  C1  LIG L   1      18.484  35.818  21.647  1.00  0.00     0.038 A 
ATOM      2  C2  LIG L   1      17.286  35.847  20.799  1.00  0.00    -0.029 A 
ATOM      3  C3  LIG L   1      16.003  35.896  21.440  1.00  0.00     0.007 A 
ATOM      4  C4  LIG L   1      15.899  35.918  22.878  1.00  0.00     0.024 A 
ATOM      5  C5  LIG L   1      17.060  35.893  23.704  1.00  0.00     0.035 A 
ATOM      6  C6  LIG L   1      18.364  35.841  23.060  1.00  0.00     0.047 A 
ATOM      7  C7  LIG L   1      17.337  35.832  19.253  1.00  0.00     0.045 C 
ENDROOT
BRANCH    1    8
ATOM      8  N1  LIG L   1      19.760  35.768  21.082  1.00  0.00    -0.283 N 
ATOM      9  H1  LIG L   1      20.121  36.561  20.624  1.00  0.00     0.155 HD
BRANCH    8   10
ATOM     10  C8  LIG L   1      20.524  34.613  21.159  1.00  0.00     0.220 A 
ATOM     11  C9  LIG L   1      22.463  33.543  22.036  1.00  0.00     0.077 A 
ATOM     12 C10  LIG L   1      22.131  32.327  21.350  1.00  0.00     0.048 A 
ATOM     13  N2  LIG L   1      21.642  34.642  21.914  1.00  0.00    -0.214 NA
ATOM     14 C11  LIG L   1      20.954  32.324  20.568  1.00  0.00     0.116 A 
ATOM     15  N3  LIG L   1      20.176  33.458  20.484  1.00  0.00    -0.223 NA
BRANCH   11   16
ATOM     16 C12  LIG L   1      23.676  33.705  22.898  1.00  0.00     0.019 A 
ATOM     17 C13  LIG L   1      24.813  33.914  25.140  1.00  0.00     0.020 A 
ATOM     18 C14  LIG L   1      23.611  33.758  24.353  1.00  0.00     0.013 A 
ATOM     19 C15  LIG L   1      26.072  34.019  24.450  1.00  0.00     0.111 A 
ATOM     20  N4  LIG L   1      26.121  33.965  23.049  1.00  0.00    -0.263 NA
ATOM     21 C16  LIG L   1      24.982  33.813  22.266  1.00  0.00     0.120 A 
ENDBRANCH   11   16
ENDBRANCH    8   10
ENDBRANCH    1    8
BRANCH    5   22
ATOM     22  N5  LIG L   1      16.877  35.927  25.134  1.00  0.00    -0.281 N 
ATOM     23 C17  LIG L   1      16.979  34.876  26.030  1.00  0.00     0.248 C 
ATOM     24  H2  LIG L   1      16.651  36.804  25.519  1.00  0.00     0.155 HD
ATOM     25  O1  LIG L   1      17.035  33.698  25.711  1.00  0.00    -0.270 OA
BRANCH   23   26
ATOM     26 C18  LIG L   1      17.009  35.177  27.494  1.00  0.00     0.037 A 
ATOM     27 C19  LIG L   1      15.875  35.820  28.162  1.00  0.00     0.013 A 
ATOM     28 C20  LIG L   1      18.191  34.832  28.256  1.00  0.00     0.013 A 
ATOM     29 C21  LIG L   1      15.937  36.114  29.571  1.00  0.00     0.002 A 
ATOM     30 C22  LIG L   1      18.248  35.120  29.638  1.00  0.00     0.002 A 
ATOM     31 C23  LIG L   1      17.139  35.763  30.324  1.00  0.00    -0.064 A 
BRANCH   31   32
ATOM     32 C24  LIG L   1      17.301  36.058  31.827  1.00  0.00    -0.043 C 
BRANCH   32   33
ATOM     33  N6  LIG L   1      17.602  34.902  32.723  1.00  0.00     0.380 N 
ATOM     34 C25  LIG L   1      17.943  35.382  34.112  1.00  0.00    -0.097 C 
ATOM     35 C26  LIG L   1      16.443  33.903  32.780  1.00  0.00    -0.097 C 
ATOM     36  H3  LIG L   1      18.409  34.419  32.327  1.00  0.00    -0.082 HD
ATOM     37 C27  LIG L   1      18.280  34.194  35.056  1.00  0.00    -0.098 C 
ATOM     38 C28  LIG L   1      16.784  32.688  33.704  1.00  0.00    -0.098 C 
ATOM     39  N7  LIG L   1      17.131  33.197  35.104  1.00  0.00     0.375 N 
ATOM     40 C29  LIG L   1      17.395  32.054  35.990  1.00  0.00    -0.096 C 
ATOM     41  H4  LIG L   1      16.336  33.708  35.490  1.00  0.00    -0.082 HD
ENDBRANCH   32   33
ENDBRANCH   31   32
ENDBRANCH   23   26
ENDBRANCH    5   22
TORSDOF 7
ENDMDL
MODEL 2
REMARK VINA RESULT:      -1.1      3.170      4.300
REMARK Flexibility Score: inf
REMARK Active torsions [ 7 ] -> [ 7 ]
ROOT
ATOM      1  C1  LIG L   1      17.254  33.694  18.375  1.00  0.00     0.038 A 
ATOM      2  C2  LIG L   1      16.432  34.662  17.640  1.00  0.00    -0.029 A 
ATOM      3  C3  LIG L   1      15.911  35.791  18.356  1.00  0.00     0.007 A 
ATOM      4  C4  LIG L   1      16.192  35.966  19.759  1.00  0.00     0.024 A 
ATOM      5  C5  LIG L   1      16.993  35.029  20.476  1.00  0.00     0.035 A 
ATOM      6  C6  LIG L   1      17.522  33.881  19.755  1.00  0.00     0.047 A 
ATOM      7  C7  LIG L   1      16.103  34.530  16.134  1.00  0.00     0.045 C 
ENDROOT
BRANCH    1    8
ATOM      8  N1  LIG L   1      17.786  32.573  17.733  1.00  0.00    -0.283 N 
ATOM      9  H1  LIG L   1      17.188  31.845  17.449  1.00  0.00     0.155 HD
BRANCH    8   10
ATOM     10  C8  LIG L   1      19.148  32.475  17.493  1.00  0.00     0.220 A 
ATOM     11  C9  LIG L   1      21.235  31.516  18.126  1.00  0.00     0.077 A 
ATOM     12 C10  LIG L   1      21.909  32.236  17.084  1.00  0.00     0.048 A 
ATOM     13  N2  LIG L   1      19.876  31.663  18.288  1.00  0.00    -0.214 NA
ATOM     14 C11  LIG L   1      21.124  33.078  16.265  1.00  0.00     0.116 A 
ATOM     15  N3  LIG L   1      19.767  33.185  16.481  1.00  0.00    -0.223 NA
BRANCH   11   16
ATOM     16 C12  LIG L   1      21.928  30.589  19.076  1.00  0.00     0.019 A 
ATOM     17 C13  LIG L   1      23.970  29.380  19.930  1.00  0.00     0.020 A 
ATOM     18 C14  LIG L   1      23.350  30.282  18.987  1.00  0.00     0.013 A 
ATOM     19 C15  LIG L   1      23.148  28.794  20.956  1.00  0.00     0.111 A 
ATOM     20  N4  LIG L   1      21.781  29.099  21.032  1.00  0.00    -0.263 NA
ATOM     21 C16  LIG L   1      21.156  29.964  20.139  1.00  0.00     0.120 A 
ENDBRANCH   11   16
ENDBRANCH    8   10
ENDBRANCH    1    8
BRANCH    5   22
ATOM     22  N5  LIG L   1      17.238  35.276  21.875  1.00  0.00    -0.281 N 
ATOM     23 C17  LIG L   1      16.782  34.547  22.961  1.00  0.00     0.248 C 
ATOM     24  H2  LIG L   1      17.798  36.058  22.084  1.00  0.00     0.155 HD
ATOM     25  O1  LIG L   1      15.912  33.690  22.902  1.00  0.00    -0.270 OA
BRANCH   23   26
ATOM     26 C18  LIG L   1      17.366  34.818  24.310  1.00  0.00     0.037 A 
ATOM     27 C19  LIG L   1      16.827  35.872  25.173  1.00  0.00     0.013 A 
ATOM     28 C20  LIG L   1      18.493  34.028  24.758  1.00  0.00     0.013 A 
ATOM     29 C21  LIG L   1      17.420  36.125  26.462  1.00  0.00     0.002 A 
ATOM     30 C22  LIG L   1      19.071  34.278  26.022  1.00  0.00     0.002 A 
ATOM     31 C23  LIG L   1      18.559  35.320  26.897  1.00  0.00    -0.064 A 
BRANCH   31   32
ATOM     32 C24  LIG L   1      19.268  35.534  28.247  1.00  0.00    -0.043 C 
BRANCH   32   33
ATOM     33  N6  LIG L   1      18.818  34.693  29.396  1.00  0.00     0.380 N 
ATOM     34 C25  LIG L   1      19.989  34.325  30.274  1.00  0.00    -0.097 C 
ATOM     35 C26  LIG L   1      17.735  35.388  30.227  1.00  0.00    -0.097 C 
ATOM     36  H3  LIG L   1      18.412  33.844  29.005  1.00  0.00    -0.082 HD
ATOM     37 C27  LIG L   1      19.545  33.431  31.466  1.00  0.00    -0.098 C 
ATOM     38 C28  LIG L   1      17.260  34.485  31.412  1.00  0.00    -0.098 C 
ATOM     39  N7  LIG L   1      18.462  34.120  32.285  1.00  0.00     0.375 N 
ATOM     40 C29  LIG L   1      18.010  33.319  33.432  1.00  0.00    -0.096 C 
ATOM     41  H4  LIG L   1      18.890  34.969  32.653  1.00  0.00    -0.082 HD
ENDBRANCH   32   33
ENDBRANCH   31   32
ENDBRANCH   23   26
ENDBRANCH    5   22
TORSDOF 7
ENDMDL
MODEL 3
REMARK VINA RESULT:      -1.0      1.754      2.033
REMARK Flexibility Score: inf
REMARK Active torsions [ 7 ] -> [ 7 ]
ROOT
ATOM      1  C1  LIG L   1      18.056  34.632  21.562  1.00  0.00     0.038 A 
ATOM      2  C2  LIG L   1      16.964  35.259  20.807  1.00  0.00    -0.029 A 
ATOM      3  C3  LIG L   1      15.958  35.973  21.538  1.00  0.00     0.007 A 
ATOM      4  C4  LIG L   1      16.023  36.072  22.975  1.00  0.00     0.024 A 
ATOM      5  C5  LIG L   1      17.084  35.468  23.711  1.00  0.00     0.035 A 
ATOM      6  C6  LIG L   1      18.106  34.739  22.975  1.00  0.00     0.047 A 
ATOM      7  C7  LIG L   1      16.847  35.191  19.266  1.00  0.00     0.045 C 
ENDROOT
BRANCH    1    8
ATOM      8  N1  LIG L   1      19.064  33.921  20.907  1.00  0.00    -0.283 N 
ATOM      9  H1  LIG L   1      18.845  33.076  20.449  1.00  0.00     0.155 HD
BRANCH    8   10
ATOM     10  C8  LIG L   1      20.368  34.390  20.893  1.00  0.00     0.220 A 
ATOM     11  C9  LIG L   1      22.662  33.960  21.369  1.00  0.00     0.077 A 
ATOM     12 C10  LIG L   1      23.027  35.271  20.913  1.00  0.00     0.048 A 
ATOM     13  N2  LIG L   1      21.342  33.570  21.338  1.00  0.00    -0.214 NA
ATOM     14 C11  LIG L   1      21.988  36.109  20.450  1.00  0.00     0.116 A 
ATOM     15  N3  LIG L   1      20.685  35.660  20.448  1.00  0.00    -0.223 NA
BRANCH   11   16
ATOM     16 C12  LIG L   1      23.646  32.960  21.891  1.00  0.00     0.019 A 
ATOM     17 C13  LIG L   1      24.302  31.045  23.396  1.00  0.00     0.020 A 
ATOM     18 C14  LIG L   1      23.315  31.990  22.928  1.00  0.00     0.013 A 
ATOM     19 C15  LIG L   1      25.618  31.088  22.815  1.00  0.00     0.111 A 
ATOM     20  N4  LIG L   1      25.924  32.025  21.816  1.00  0.00    -0.263 NA
ATOM     21 C16  LIG L   1      24.994  32.946  21.344  1.00  0.00     0.120 A 
ENDBRANCH   11   16
ENDBRANCH    8   10
ENDBRANCH    1    8
BRANCH    5   22
ATOM     22  N5  LIG L   1      17.086  35.617  25.145  1.00  0.00    -0.281 N 
ATOM     23 C17  LIG L   1      16.593  34.737  26.094  1.00  0.00     0.248 C 
ATOM     24  H2  LIG L   1      17.487  36.447  25.492  1.00  0.00     0.155 HD
ATOM     25  O1  LIG L   1      15.879  33.778  25.842  1.00  0.00    -0.270 OA
BRANCH   23   26
ATOM     26 C18  LIG L   1      16.931  34.962  27.533  1.00  0.00     0.037 A 
ATOM     27 C19  LIG L   1      16.131  35.861  28.369  1.00  0.00     0.013 A 
ATOM     28 C20  LIG L   1      18.078  34.284  28.098  1.00  0.00     0.013 A 
ATOM     29 C21  LIG L   1      16.489  36.074  29.749  1.00  0.00     0.002 A 
ATOM     30 C22  LIG L   1      18.425  34.494  29.451  1.00  0.00     0.002 A 
ATOM     31 C23  LIG L   1      17.652  35.384  30.302  1.00  0.00    -0.064 A 
BRANCH   31   32
ATOM     32 C24  LIG L   1      18.119  35.568  31.758  1.00  0.00    -0.043 C 
BRANCH   32   33
ATOM     33  N6  LIG L   1      19.217  34.679  32.241  1.00  0.00     0.380 N 
ATOM     34 C25  LIG L   1      20.195  35.455  33.089  1.00  0.00    -0.097 C 
ATOM     35 C26  LIG L   1      18.680  33.477  33.024  1.00  0.00    -0.097 C 
ATOM     36  H3  LIG L   1      19.699  34.321  31.417  1.00  0.00    -0.082 HD
ATOM     37 C27  LIG L   1      21.357  34.551  33.586  1.00  0.00    -0.098 C 
ATOM     38 C28  LIG L   1      19.841  32.545  33.503  1.00  0.00    -0.098 C 
ATOM     39  N7  LIG L   1      20.821  33.352  34.356  1.00  0.00     0.375 N 
ATOM     40 C29  LIG L   1      21.882  32.466  34.855  1.00  0.00    -0.096 C 
ATOM     41  H4  LIG L   1      20.335  33.737  35.166  1.00  0.00    -0.082 HD
ENDBRANCH   32   33
ENDBRANCH   31   32
ENDBRANCH   23   26
ENDBRANCH    5   22
TORSDOF 7
ENDMDL
MODEL 4
REMARK VINA RESULT:      -1.0      4.455     10.302
REMARK Flexibility Score: inf
REMARK Active torsions [ 7 ] -> [ 7 ]
ROOT
ATOM      1  C1  LIG L   1      18.828  31.361  31.590  1.00  0.00     0.038 A 
ATOM      2  C2  LIG L   1      18.074  31.766  32.783  1.00  0.00    -0.029 A 
ATOM      3  C3  LIG L   1      16.966  32.662  32.612  1.00  0.00     0.007 A 
ATOM      4  C4  LIG L   1      16.607  33.146  31.303  1.00  0.00     0.024 A 
ATOM      5  C5  LIG L   1      17.335  32.752  30.142  1.00  0.00     0.035 A 
ATOM      6  C6  LIG L   1      18.460  31.846  30.309  1.00  0.00     0.047 A 
ATOM      7  C7  LIG L   1      18.410  31.273  34.210  1.00  0.00     0.045 C 
ENDROOT
BRANCH    1    8
ATOM      8  N1  LIG L   1      19.917  30.493  31.693  1.00  0.00    -0.283 N 
ATOM      9  H1  LIG L   1      20.745  30.800  32.130  1.00  0.00     0.155 HD
BRANCH    8   10
ATOM     10  C8  LIG L   1      19.847  29.204  31.186  1.00  0.00     0.220 A 
ATOM     11  C9  LIG L   1      20.122  27.767  29.307  1.00  0.00     0.077 A 
ATOM     12 C10  LIG L   1      19.712  26.633  30.083  1.00  0.00     0.048 A 
ATOM     13  N2  LIG L   1      20.175  29.012  29.892  1.00  0.00    -0.214 NA
ATOM     14 C11  LIG L   1      19.375  26.861  31.436  1.00  0.00     0.116 A 
ATOM     15  N3  LIG L   1      19.446  28.132  31.963  1.00  0.00    -0.223 NA
BRANCH   11   16
ATOM     16 C12  LIG L   1      20.507  27.688  27.862  1.00  0.00     0.019 A 
ATOM     17 C13  LIG L   1      21.746  28.523  25.829  1.00  0.00     0.020 A 
ATOM     18 C14  LIG L   1      21.406  28.644  27.228  1.00  0.00     0.013 A 
ATOM     19 C15  LIG L   1      21.172  27.436  25.080  1.00  0.00     0.111 A 
ATOM     20  N4  LIG L   1      20.309  26.520  25.701  1.00  0.00    -0.263 NA
ATOM     21 C16  LIG L   1      19.965  26.611  27.046  1.00  0.00     0.120 A 
ENDBRANCH   11   16
ENDBRANCH    8   10
ENDBRANCH    1    8
BRANCH    5   22
ATOM     22  N5  LIG L   1      16.910  33.271  28.866  1.00  0.00    -0.281 N 
ATOM     23 C17  LIG L   1      17.479  34.298  28.132  1.00  0.00     0.248 C 
ATOM     24  H2  LIG L   1      16.118  32.842  28.468  1.00  0.00     0.155 HD
ATOM     25  O1  LIG L   1      18.318  35.074  28.565  1.00  0.00    -0.270 OA
BRANCH   23   26
ATOM     26 C18  LIG L   1      17.043  34.503  26.717  1.00  0.00     0.037 A 
ATOM     27 C19  LIG L   1      16.440  33.415  25.943  1.00  0.00     0.013 A 
ATOM     28 C20  LIG L   1      17.235  35.801  26.106  1.00  0.00     0.013 A 
ATOM     29 C21  LIG L   1      16.044  33.635  24.575  1.00  0.00     0.002 A 
ATOM     30 C22  LIG L   1      16.844  36.013  24.764  1.00  0.00     0.002 A 
ATOM     31 C23  LIG L   1      16.248  34.950  23.972  1.00  0.00    -0.064 A 
BRANCH   31   32
ATOM     32 C24  LIG L   1      15.875  35.268  22.512  1.00  0.00    -0.043 C 
BRANCH   32   33
ATOM     33  N6  LIG L   1      16.961  35.170  21.492  1.00  0.00     0.380 N 
ATOM     34 C25  LIG L   1      17.093  33.753  20.990  1.00  0.00    -0.097 C 
ATOM     35 C26  LIG L   1      16.733  36.125  20.316  1.00  0.00    -0.097 C 
ATOM     36  H3  LIG L   1      17.830  35.446  21.950  1.00  0.00    -0.082 HD
ATOM     37 C27  LIG L   1      18.233  33.626  19.942  1.00  0.00    -0.098 C 
ATOM     38 C28  LIG L   1      17.890  36.026  19.270  1.00  0.00    -0.098 C 
ATOM     39  N7  LIG L   1      18.008  34.582  18.779  1.00  0.00     0.375 N 
ATOM     40 C29  LIG L   1      19.057  34.497  17.752  1.00  0.00    -0.096 C 
ATOM     41  H4  LIG L   1      17.131  34.293  18.347  1.00  0.00    -0.082 HD
ENDBRANCH   32   33
ENDBRANCH   31   32
ENDBRANCH   23   26
ENDBRANCH    5   22
TORSDOF 7
ENDMDL
MODEL 5
REMARK VINA RESULT:      -0.9      4.745     10.272
REMARK Flexibility Score: inf
REMARK Active torsions [ 7 ] -> [ 7 ]
ROOT
ATOM      1  C1  LIG L   1      18.965  31.979  29.513  1.00  0.00     0.038 A 
ATOM      2  C2  LIG L   1      17.900  31.999  30.522  1.00  0.00    -0.029 A 
ATOM      3  C3  LIG L   1      16.629  32.554  30.155  1.00  0.00     0.007 A 
ATOM      4  C4  LIG L   1      16.410  33.075  28.828  1.00  0.00     0.024 A 
ATOM      5  C5  LIG L   1      17.441  33.054  27.845  1.00  0.00     0.035 A 
ATOM      6  C6  LIG L   1      18.733  32.495  28.213  1.00  0.00     0.047 A 
ATOM      7  C7  LIG L   1      18.076  31.448  31.957  1.00  0.00     0.045 C 
ENDROOT
BRANCH    1    8
ATOM      8  N1  LIG L   1      20.225  31.453  29.812  1.00  0.00    -0.283 N 
ATOM      9  H1  LIG L   1      20.583  31.538  30.725  1.00  0.00     0.155 HD
BRANCH    8   10
ATOM     10  C8  LIG L   1      20.975  30.814  28.837  1.00  0.00     0.220 A 
ATOM     11  C9  LIG L   1      21.326  28.847  27.541  1.00  0.00     0.077 A 
ATOM     12 C10  LIG L   1      22.453  29.449  26.888  1.00  0.00     0.048 A 
ATOM     13  N2  LIG L   1      20.628  29.557  28.492  1.00  0.00    -0.214 NA
ATOM     14 C11  LIG L   1      22.794  30.767  27.267  1.00  0.00     0.116 A 
ATOM     15  N3  LIG L   1      22.057  31.424  28.228  1.00  0.00    -0.223 NA
BRANCH   11   16
ATOM     16 C12  LIG L   1      20.844  27.459  27.252  1.00  0.00     0.019 A 
ATOM     17 C13  LIG L   1      19.688  25.313  27.901  1.00  0.00     0.020 A 
ATOM     18 C14  LIG L   1      20.133  26.648  28.231  1.00  0.00     0.013 A 
ATOM     19 C15  LIG L   1      19.967  24.808  26.583  1.00  0.00     0.111 A 
ATOM     20  N4  LIG L   1      20.651  25.599  25.648  1.00  0.00    -0.263 NA
ATOM     21 C16  LIG L   1      21.090  26.887  25.937  1.00  0.00     0.120 A 
ENDBRANCH   11   16
ENDBRANCH    8   10
ENDBRANCH    1    8
BRANCH    5   22
ATOM     22  N5  LIG L   1      17.144  33.585  26.538  1.00  0.00    -0.281 N 
ATOM     23 C17  LIG L   1      17.314  34.884  26.087  1.00  0.00     0.248 C 
ATOM     24  H2  LIG L   1      16.774  32.946  25.886  1.00  0.00     0.155 HD
ATOM     25  O1  LIG L   1      17.550  35.841  26.810  1.00  0.00    -0.270 OA
BRANCH   23   26
ATOM     26 C18  LIG L   1      17.190  35.163  24.624  1.00  0.00     0.037 A 
ATOM     27 C19  LIG L   1      16.013  34.731  23.865  1.00  0.00     0.013 A 
ATOM     28 C20  LIG L   1      18.263  35.863  23.951  1.00  0.00     0.013 A 
ATOM     29 C21  LIG L   1      15.927  34.998  22.451  1.00  0.00     0.002 A 
ATOM     30 C22  LIG L   1      18.174  36.123  22.565  1.00  0.00     0.002 A 
ATOM     31 C23  LIG L   1      17.021  35.702  21.787  1.00  0.00    -0.064 A 
BRANCH   31   32
ATOM     32 C24  LIG L   1      17.023  36.010  20.278  1.00  0.00    -0.043 C 
BRANCH   32   33
ATOM     33  N6  LIG L   1      17.692  35.023  19.379  1.00  0.00     0.380 N 
ATOM     34 C25  LIG L   1      16.837  34.743  18.168  1.00  0.00    -0.097 C 
ATOM     35 C26  LIG L   1      19.083  35.494  18.944  1.00  0.00    -0.097 C 
ATOM     36  H3  LIG L   1      17.810  34.162  19.914  1.00  0.00    -0.082 HD
ATOM     37 C27  LIG L   1      17.507  33.701  17.229  1.00  0.00    -0.098 C 
ATOM     38 C28  LIG L   1      19.778  34.439  18.023  1.00  0.00    -0.098 C 
ATOM     39  N7  LIG L   1      18.893  34.167  16.805  1.00  0.00     0.375 N 
ATOM     40 C29  LIG L   1      19.570  33.219  15.908  1.00  0.00    -0.096 C 
ATOM     41  H4  LIG L   1      18.748  35.032  16.285  1.00  0.00    -0.082 HD
ENDBRANCH   32   33
ENDBRANCH   31   32
ENDBRANCH   23   26
ENDBRANCH    5   22
TORSDOF 7
ENDMDL
