MODEL 1
REMARK VINA RESULT:      -1.1      0.000      0.000
REMARK Flexibility Score: inf
REMARK Active torsions [ 7 ] -> [ 7 ]
ROOT
ATOM      1  C1  LIG L   1      20.425  34.690  19.583  1.00  0.00     0.038 A 
ATOM      2  C2  LIG L   1      20.476  34.388  18.148  1.00  0.00    -0.029 A 
ATOM      3  C3  LIG L   1      21.114  33.172  17.733  1.00  0.00     0.007 A 
ATOM      4  C4  LIG L   1      21.686  32.273  18.705  1.00  0.00     0.024 A 
ATOM      5  C5  LIG L   1      21.634  32.561  20.100  1.00  0.00     0.035 A 
ATOM      6  C6  LIG L   1      20.991  33.794  20.526  1.00  0.00     0.047 A 
ATOM      7  C7  LIG L   1      19.875  35.312  17.063  1.00  0.00     0.045 C 
ENDROOT
BRANCH    1    8
ATOM      8  N1  LIG L   1      19.819  35.859  20.048  1.00  0.00    -0.283 N 
ATOM      9  H1  LIG L   1      20.331  36.700  20.062  1.00  0.00     0.155 HD
BRANCH    8   10
ATOM     10  C8  LIG L   1      18.505  35.850  20.490  1.00  0.00     0.220 A 
ATOM     11  C9  LIG L   1      17.004  35.608  22.324  1.00  0.00     0.077 A 
ATOM     12 C10  LIG L   1      15.877  35.798  21.458  1.00  0.00     0.048 A 
ATOM     13  N2  LIG L   1      18.279  35.643  21.804  1.00  0.00    -0.214 NA
ATOM     14 C11  LIG L   1      16.141  36.013  20.087  1.00  0.00     0.116 A 
ATOM     15  N3  LIG L   1      17.440  36.035  19.627  1.00  0.00    -0.223 NA
BRANCH   11   16
ATOM     16 C12  LIG L   1      16.888  35.366  23.797  1.00  0.00     0.019 A 
ATOM     17 C13  LIG L   1      15.886  34.203  25.800  1.00  0.00     0.020 A 
ATOM     18 C14  LIG L   1      15.960  34.399  24.370  1.00  0.00     0.013 A 
ATOM     19 C15  LIG L   1      16.751  34.989  26.641  1.00  0.00     0.111 A 
ATOM     20  N4  LIG L   1      17.642  35.915  26.078  1.00  0.00    -0.263 NA
ATOM     21 C16  LIG L   1      17.735  36.124  24.705  1.00  0.00     0.120 A 
ENDBRANCH   11   16
ENDBRANCH    8   10
ENDBRANCH    1    8
BRANCH    5   22
ATOM     22  N5  LIG L   1      22.220  31.609  21.011  1.00  0.00    -0.281 N 
ATOM     23 C17  LIG L   1      23.462  31.668  21.622  1.00  0.00     0.248 C 
ATOM     24  H2  LIG L   1      21.669  30.821  21.225  1.00  0.00     0.155 HD
ATOM     25  O1  LIG L   1      24.350  32.447  21.310  1.00  0.00    -0.270 OA
BRANCH   23   26
ATOM     26 C18  LIG L   1      23.766  30.714  22.732  1.00  0.00     0.037 A 
ATOM     27 C19  LIG L   1      25.126  30.567  23.256  1.00  0.00     0.013 A 
ATOM     28 C20  LIG L   1      22.692  29.916  23.285  1.00  0.00     0.013 A 
ATOM     29 C21  LIG L   1      25.396  29.627  24.315  1.00  0.00     0.002 A 
ATOM     30 C22  LIG L   1      22.960  28.996  24.323  1.00  0.00     0.002 A 
ATOM     31 C23  LIG L   1      24.301  28.827  24.858  1.00  0.00    -0.064 A 
BRANCH   31   32
ATOM     32 C24  LIG L   1      24.501  27.784  25.974  1.00  0.00    -0.043 C 
BRANCH   32   33
ATOM     33  N6  LIG L   1      24.274  26.352  25.620  1.00  0.00     0.380 N 
ATOM     34 C25  LIG L   1      25.492  25.524  25.950  1.00  0.00    -0.097 C 
ATOM     35 C26  LIG L   1      23.040  25.775  26.320  1.00  0.00    -0.097 C 
ATOM     36  H3  LIG L   1      24.105  26.314  24.615  1.00  0.00    -0.082 HD
ATOM     37 C27  LIG L   1      25.284  24.032  25.569  1.00  0.00    -0.098 C 
ATOM     38 C28  LIG L   1      22.805  24.282  25.921  1.00  0.00    -0.098 C 
ATOM     39  N7  LIG L   1      24.052  23.463  26.260  1.00  0.00     0.375 N 
ATOM     40 C29  LIG L   1      23.813  22.049  25.939  1.00  0.00    -0.096 C 
ATOM     41  H4  LIG L   1      24.242  23.524  27.260  1.00  0.00    -0.082 HD
ENDBRANCH   32   33
ENDBRANCH   31   32
ENDBRANCH   23   26
ENDBRANCH    5   22
TORSDOF 7
ENDMDL
MODEL 2
REMARK VINA RESULT:      -1.1      5.048     12.074
REMARK Flexibility Score: inf
REMARK Active torsions [ 7 ] -> [ 7 ]
ROOT
ATOM      1  C1  LIG L   1      18.671  32.930  31.367  1.00  0.00     0.038 A 
ATOM      2  C2  LIG L   1      17.407  32.384  31.877  1.00  0.00    -0.029 A 
ATOM      3  C3  LIG L   1      16.257  32.424  31.021  1.00  0.00     0.007 A 
ATOM      4  C4  LIG L   1      16.346  32.984  29.695  1.00  0.00     0.024 A 
ATOM      5  C5  LIG L   1      17.572  33.512  29.195  1.00  0.00     0.035 A 
ATOM      6  C6  LIG L   1      18.741  33.476  30.060  1.00  0.00     0.047 A 
ATOM      7  C7  LIG L   1      17.255  31.766  33.287  1.00  0.00     0.045 C 
ENDROOT
BRANCH    1    8
ATOM      8  N1  LIG L   1      19.824  32.921  32.154  1.00  0.00    -0.283 N 
ATOM      9  H1  LIG L   1      19.877  33.504  32.946  1.00  0.00     0.155 HD
BRANCH    8   10
ATOM     10  C8  LIG L   1      20.895  32.102  31.833  1.00  0.00     0.220 A 
ATOM     11  C9  LIG L   1      21.691  29.885  31.474  1.00  0.00     0.077 A 
ATOM     12 C10  LIG L   1      23.013  30.377  31.209  1.00  0.00     0.048 A 
ATOM     13  N2  LIG L   1      20.681  30.771  31.775  1.00  0.00    -0.214 NA
ATOM     14 C11  LIG L   1      23.210  31.775  31.275  1.00  0.00     0.116 A 
ATOM     15  N3  LIG L   1      22.158  32.609  31.584  1.00  0.00    -0.223 NA
BRANCH   11   16
ATOM     16 C12  LIG L   1      21.325  28.434  31.446  1.00  0.00     0.019 A 
ATOM     17 C13  LIG L   1      21.794  26.020  30.882  1.00  0.00     0.020 A 
ATOM     18 C14  LIG L   1      22.195  27.408  30.884  1.00  0.00     0.013 A 
ATOM     19 C15  LIG L   1      20.515  25.679  31.447  1.00  0.00     0.111 A 
ATOM     20  N4  LIG L   1      19.687  26.674  31.987  1.00  0.00    -0.263 NA
ATOM     21 C16  LIG L   1      20.047  28.018  32.004  1.00  0.00     0.120 A 
ENDBRANCH   11   16
ENDBRANCH    8   10
ENDBRANCH    1    8
BRANCH    5   22
ATOM     22  N5  LIG L   1      17.585  34.047  27.856  1.00  0.00    -0.281 N 
ATOM     23 C17  LIG L   1      17.763  33.360  26.667  1.00  0.00     0.248 C 
ATOM     24  H2  LIG L   1      17.452  35.019  27.779  1.00  0.00     0.155 HD
ATOM     25  O1  LIG L   1      18.152  32.204  26.587  1.00  0.00    -0.270 OA
BRANCH   23   26
ATOM     26 C18  LIG L   1      17.480  34.063  25.378  1.00  0.00     0.037 A 
ATOM     27 C19  LIG L   1      16.117  34.163  24.850  1.00  0.00     0.013 A 
ATOM     28 C20  LIG L   1      18.582  34.642  24.640  1.00  0.00     0.013 A 
ATOM     29 C21  LIG L   1      15.875  34.832  23.596  1.00  0.00     0.002 A 
ATOM     30 C22  LIG L   1      18.341  35.298  23.412  1.00  0.00     0.002 A 
ATOM     31 C23  LIG L   1      17.000  35.407  22.862  1.00  0.00    -0.064 A 
BRANCH   31   32
ATOM     32 C24  LIG L   1      16.837  36.120  21.507  1.00  0.00    -0.043 C 
BRANCH   32   33
ATOM     33  N6  LIG L   1      16.981  35.288  20.275  1.00  0.00     0.380 N 
ATOM     34 C25  LIG L   1      15.963  34.174  20.264  1.00  0.00    -0.097 C 
ATOM     35 C26  LIG L   1      16.859  36.125  18.999  1.00  0.00    -0.097 C 
ATOM     36  H3  LIG L   1      17.918  34.885  20.293  1.00  0.00    -0.082 HD
ATOM     37 C27  LIG L   1      16.110  33.283  18.999  1.00  0.00    -0.098 C 
ATOM     38 C28  LIG L   1      17.035  35.243  17.720  1.00  0.00    -0.098 C 
ATOM     39  N7  LIG L   1      15.997  34.119  17.732  1.00  0.00     0.375 N 
ATOM     40 C29  LIG L   1      16.122  33.322  16.503  1.00  0.00    -0.096 C 
ATOM     41  H4  LIG L   1      15.058  34.518  17.745  1.00  0.00    -0.082 HD
ENDBRANCH   32   33
ENDBRANCH   31   32
ENDBRANCH   23   26
ENDBRANCH    5   22
TORSDOF 7
ENDMDL
MODEL 3
REMARK VINA RESULT:      -1.0      3.961      8.517
REMARK Flexibility Score: inf
REMARK Active torsions [ 7 ] -> [ 7 ]
ROOT
ATOM      1  C1  LIG L   1      17.639  33.480  19.277  1.00  0.00     0.038 A 
ATOM      2  C2  LIG L   1      17.097  34.506  18.378  1.00  0.00    -0.029 A 
ATOM      3  C3  LIG L   1      16.850  35.814  18.914  1.00  0.00     0.007 A 
ATOM      4  C4  LIG L   1      17.131  36.108  20.297  1.00  0.00     0.024 A 
ATOM      5  C5  LIG L   1      17.661  35.115  21.172  1.00  0.00     0.035 A 
ATOM      6  C6  LIG L   1      17.911  33.786  20.635  1.00  0.00     0.047 A 
ATOM      7  C7  LIG L   1      16.783  34.250  16.886  1.00  0.00     0.045 C 
ENDROOT
BRANCH    1    8
ATOM      8  N1  LIG L   1      17.898  32.188  18.815  1.00  0.00    -0.283 N 
ATOM      9  H1  LIG L   1      17.148  31.573  18.642  1.00  0.00     0.155 HD
BRANCH    8   10
ATOM     10  C8  LIG L   1      19.199  31.760  18.597  1.00  0.00     0.220 A 
ATOM     11  C9  LIG L   1      20.947  30.260  19.202  1.00  0.00     0.077 A 
ATOM     12 C10  LIG L   1      21.822  30.850  18.230  1.00  0.00     0.048 A 
ATOM     13  N2  LIG L   1      19.664  30.739  19.346  1.00  0.00    -0.214 NA
ATOM     14 C11  LIG L   1      21.309  31.917  17.458  1.00  0.00     0.116 A 
ATOM     15  N3  LIG L   1      20.017  32.353  17.653  1.00  0.00    -0.223 NA
BRANCH   11   16
ATOM     16 C12  LIG L   1      21.345  29.127  20.096  1.00  0.00     0.019 A 
ATOM     17 C13  LIG L   1      22.091  28.184  22.314  1.00  0.00     0.020 A 
ATOM     18 C14  LIG L   1      21.715  29.313  21.493  1.00  0.00     0.013 A 
ATOM     19 C15  LIG L   1      22.091  26.875  21.715  1.00  0.00     0.111 A 
ATOM     20  N4  LIG L   1      21.731  26.709  20.370  1.00  0.00    -0.263 NA
ATOM     21 C16  LIG L   1      21.364  27.776  19.556  1.00  0.00     0.120 A 
ENDBRANCH   11   16
ENDBRANCH    8   10
ENDBRANCH    1    8
BRANCH    5   22
ATOM     22  N5  LIG L   1      17.925  35.486  22.540  1.00  0.00    -0.281 N 
ATOM     23 C17  LIG L   1      17.074  35.386  23.628  1.00  0.00     0.248 C 
ATOM     24  H2  LIG L   1      18.819  35.856  22.722  1.00  0.00     0.155 HD
ATOM     25  O1  LIG L   1      15.876  35.159  23.550  1.00  0.00    -0.270 OA
BRANCH   23   26
ATOM     26 C18  LIG L   1      17.632  35.581  25.001  1.00  0.00     0.037 A 
ATOM     27 C19  LIG L   1      19.064  35.426  25.268  1.00  0.00     0.013 A 
ATOM     28 C20  LIG L   1      16.731  35.917  26.083  1.00  0.00     0.013 A 
ATOM     29 C21  LIG L   1      19.574  35.603  26.605  1.00  0.00     0.002 A 
ATOM     30 C22  LIG L   1      17.234  36.091  27.391  1.00  0.00     0.002 A 
ATOM     31 C23  LIG L   1      18.649  35.938  27.685  1.00  0.00    -0.064 A 
BRANCH   31   32
ATOM     32 C24  LIG L   1      19.102  36.124  29.146  1.00  0.00    -0.043 C 
BRANCH   32   33
ATOM     33  N6  LIG L   1      20.147  35.190  29.662  1.00  0.00     0.380 N 
ATOM     34 C25  LIG L   1      21.336  35.960  30.182  1.00  0.00    -0.097 C 
ATOM     35 C26  LIG L   1      19.601  34.264  30.753  1.00  0.00    -0.097 C 
ATOM     36  H3  LIG L   1      20.441  34.607  28.879  1.00  0.00    -0.082 HD
ATOM     37 C27  LIG L   1      22.445  35.004  30.706  1.00  0.00    -0.098 C 
ATOM     38 C28  LIG L   1      20.701  33.278  31.265  1.00  0.00    -0.098 C 
ATOM     39  N7  LIG L   1      21.898  34.079  31.783  1.00  0.00     0.375 N 
ATOM     40 C29  LIG L   1      22.909  33.157  32.320  1.00  0.00    -0.096 C 
ATOM     41  H4  LIG L   1      21.600  34.686  32.547  1.00  0.00    -0.082 HD
ENDBRANCH   32   33
ENDBRANCH   31   32
ENDBRANCH   23   26
ENDBRANCH    5   22
TORSDOF 7
ENDMDL
MODEL 4
REMARK VINA RESULT:      -1.0      4.403      9.069
REMARK Flexibility Score: inf
REMARK Active torsions [ 7 ] -> [ 7 ]
ROOT
ATOM      1  C1  LIG L   1      18.244  34.504  21.718  1.00  0.00     0.038 A 
ATOM      2  C2  LIG L   1      17.382  35.368  20.903  1.00  0.00    -0.029 A 
ATOM      3  C3  LIG L   1      16.360  36.125  21.567  1.00  0.00     0.007 A 
ATOM      4  C4  LIG L   1      16.190  36.037  22.996  1.00  0.00     0.024 A 
ATOM      5  C5  LIG L   1      17.029  35.201  23.791  1.00  0.00     0.035 A 
ATOM      6  C6  LIG L   1      18.065  34.430  23.122  1.00  0.00     0.047 A 
ATOM      7  C7  LIG L   1      17.522  35.507  19.369  1.00  0.00     0.045 C 
ENDROOT
BRANCH    1    8
ATOM      8  N1  LIG L   1      19.255  33.741  21.128  1.00  0.00    -0.283 N 
ATOM      9  H1  LIG L   1      20.052  34.189  20.761  1.00  0.00     0.155 HD
BRANCH    8   10
ATOM     10  C8  LIG L   1      19.150  32.361  21.055  1.00  0.00     0.220 A 
ATOM     11  C9  LIG L   1      20.003  30.243  21.734  1.00  0.00     0.077 A 
ATOM     12 C10  LIG L   1      19.015  29.565  20.945  1.00  0.00     0.048 A 
ATOM     13  N2  LIG L   1      20.030  31.619  21.759  1.00  0.00    -0.214 NA
ATOM     14 C11  LIG L   1      18.104  30.365  20.219  1.00  0.00     0.116 A 
ATOM     15  N3  LIG L   1      18.186  31.739  20.283  1.00  0.00    -0.223 NA
BRANCH   11   16
ATOM     16 C12  LIG L   1      21.037  29.536  22.555  1.00  0.00     0.019 A 
ATOM     17 C13  LIG L   1      22.698  27.677  22.941  1.00  0.00     0.020 A 
ATOM     18 C14  LIG L   1      21.707  28.320  22.110  1.00  0.00     0.013 A 
ATOM     19 C15  LIG L   1      23.005  28.267  24.217  1.00  0.00     0.111 A 
ATOM     20  N4  LIG L   1      22.356  29.439  24.634  1.00  0.00    -0.263 NA
ATOM     21 C16  LIG L   1      21.398  30.080  23.855  1.00  0.00     0.120 A 
ENDBRANCH   11   16
ENDBRANCH    8   10
ENDBRANCH    1    8
BRANCH    5   22
ATOM     22  N5  LIG L   1      16.805  35.173  25.215  1.00  0.00    -0.281 N 
ATOM     23 C17  LIG L   1      16.357  34.112  25.985  1.00  0.00     0.248 C 
ATOM     24  H2  LIG L   1      16.992  36.009  25.698  1.00  0.00     0.155 HD
ATOM     25  O1  LIG L   1      15.875  33.084  25.533  1.00  0.00    -0.270 OA
BRANCH   23   26
ATOM     26 C18  LIG L   1      16.444  34.213  27.474  1.00  0.00     0.037 A 
ATOM     27 C19  LIG L   1      15.892  35.366  28.190  1.00  0.00     0.013 A 
ATOM     28 C20  LIG L   1      17.098  33.154  28.211  1.00  0.00     0.013 A 
ATOM     29 C21  LIG L   1      16.004  35.447  29.625  1.00  0.00     0.002 A 
ATOM     30 C22  LIG L   1      17.206  33.236  29.618  1.00  0.00     0.002 A 
ATOM     31 C23  LIG L   1      16.671  34.371  30.353  1.00  0.00    -0.064 A 
BRANCH   31   32
ATOM     32 C24  LIG L   1      16.856  34.384  31.882  1.00  0.00    -0.043 C 
BRANCH   32   33
ATOM     33  N6  LIG L   1      18.203  34.017  32.412  1.00  0.00     0.380 N 
ATOM     34 C25  LIG L   1      19.151  35.185  32.305  1.00  0.00    -0.097 C 
ATOM     35 C26  LIG L   1      18.136  33.524  33.860  1.00  0.00    -0.097 C 
ATOM     36  H3  LIG L   1      18.552  33.248  31.839  1.00  0.00    -0.082 HD
ATOM     37 C27  LIG L   1      20.566  34.818  32.833  1.00  0.00    -0.098 C 
ATOM     38 C28  LIG L   1      19.551  33.123  34.391  1.00  0.00    -0.098 C 
ATOM     39  N7  LIG L   1      20.496  34.319  34.269  1.00  0.00     0.375 N 
ATOM     40 C29  LIG L   1      21.812  33.963  34.821  1.00  0.00    -0.096 C 
ATOM     41  H4  LIG L   1      20.135  35.100  34.817  1.00  0.00    -0.082 HD
ENDBRANCH   32   33
ENDBRANCH   31   32
ENDBRANCH   23   26
ENDBRANCH    5   22
TORSDOF 7
ENDMDL
MODEL 5
REMARK VINA RESULT:      -1.0      4.759      6.677
REMARK Flexibility Score: inf
REMARK Active torsions [ 7 ] -> [ 7 ]
ROOT
ATOM      1  C1  LIG L   1      20.465  32.517  23.998  1.00  0.00     0.038 A 
ATOM      2  C2  LIG L   1      21.544  32.541  23.003  1.00  0.00    -0.029 A 
ATOM      3  C3  LIG L   1      21.967  31.294  22.431  1.00  0.00     0.007 A 
ATOM      4  C4  LIG L   1      21.344  30.055  22.825  1.00  0.00     0.024 A 
ATOM      5  C5  LIG L   1      20.293  30.029  23.789  1.00  0.00     0.035 A 
ATOM      6  C6  LIG L   1      19.862  31.289  24.374  1.00  0.00     0.047 A 
ATOM      7  C7  LIG L   1      22.243  33.839  22.538  1.00  0.00     0.045 C 
ENDROOT
BRANCH    1    8
ATOM      8  N1  LIG L   1      20.012  33.697  24.591  1.00  0.00    -0.283 N 
ATOM      9  H1  LIG L   1      20.572  34.150  25.263  1.00  0.00     0.155 HD
BRANCH    8   10
ATOM     10  C8  LIG L   1      18.783  34.237  24.246  1.00  0.00     0.220 A 
ATOM     11  C9  LIG L   1      17.391  35.126  22.529  1.00  0.00     0.077 A 
ATOM     12 C10  LIG L   1      16.333  35.352  23.471  1.00  0.00     0.048 A 
ATOM     13  N2  LIG L   1      18.578  34.574  22.955  1.00  0.00    -0.214 NA
ATOM     14 C11  LIG L   1      16.572  34.989  24.815  1.00  0.00     0.116 A 
ATOM     15  N3  LIG L   1      17.784  34.443  25.179  1.00  0.00    -0.223 NA
BRANCH   11   16
ATOM     16 C12  LIG L   1      17.292  35.461  21.073  1.00  0.00     0.019 A 
ATOM     17 C13  LIG L   1      18.291  35.782  18.779  1.00  0.00     0.020 A 
ATOM     18 C14  LIG L   1      18.442  35.452  20.178  1.00  0.00     0.013 A 
ATOM     19 C15  LIG L   1      16.979  36.121  18.296  1.00  0.00     0.111 A 
ATOM     20  N4  LIG L   1      15.879  36.125  19.167  1.00  0.00    -0.263 NA
ATOM     21 C16  LIG L   1      15.993  35.810  20.517  1.00  0.00     0.120 A 
ENDBRANCH   11   16
ENDBRANCH    8   10
ENDBRANCH    1    8
BRANCH    5   22
ATOM     22  N5  LIG L   1      19.713  28.752  24.125  1.00  0.00    -0.281 N 
ATOM     23 C17  LIG L   1      18.721  28.063  23.448  1.00  0.00     0.248 C 
ATOM     24  H2  LIG L   1      20.065  28.318  24.936  1.00  0.00     0.155 HD
ATOM     25  O1  LIG L   1      18.027  28.542  22.563  1.00  0.00    -0.270 OA
BRANCH   23   26
ATOM     26 C18  LIG L   1      18.450  26.640  23.817  1.00  0.00     0.037 A 
ATOM     27 C19  LIG L   1      17.083  26.114  23.862  1.00  0.00     0.013 A 
ATOM     28 C20  LIG L   1      19.564  25.777  24.145  1.00  0.00     0.013 A 
ATOM     29 C21  LIG L   1      16.848  24.742  24.238  1.00  0.00     0.002 A 
ATOM     30 C22  LIG L   1      19.330  24.432  24.512  1.00  0.00     0.002 A 
ATOM     31 C23  LIG L   1      17.984  23.886  24.570  1.00  0.00    -0.064 A 
BRANCH   31   32
ATOM     32 C24  LIG L   1      17.826  22.416  25.002  1.00  0.00    -0.043 C 
BRANCH   32   33
ATOM     33  N6  LIG L   1      17.135  21.495  24.051  1.00  0.00     0.380 N 
ATOM     34 C25  LIG L   1      17.943  21.333  22.787  1.00  0.00    -0.097 C 
ATOM     35 C26  LIG L   1      16.858  20.125  24.678  1.00  0.00    -0.097 C 
ATOM     36  H3  LIG L   1      16.236  21.919  23.823  1.00  0.00    -0.082 HD
ATOM     37 C27  LIG L   1      17.230  20.393  21.775  1.00  0.00    -0.098 C 
ATOM     38 C28  LIG L   1      16.114  19.182  23.677  1.00  0.00    -0.098 C 
ATOM     39  N7  LIG L   1      16.948  19.036  22.403  1.00  0.00     0.375 N 
ATOM     40 C29  LIG L   1      16.279  18.104  21.483  1.00  0.00    -0.096 C 
ATOM     41  H4  LIG L   1      17.860  18.640  22.632  1.00  0.00    -0.082 HD
ENDBRANCH   32   33
ENDBRANCH   31   32
ENDBRANCH   23   26
ENDBRANCH    5   22
TORSDOF 7
ENDMDL
